*Heading
** Job name: channel_tet_elem Model name: Model-channel
** Generated by: Abaqus/CAE 6.11-1
*Preprint, echo=NO, model=NO, history=NO, contact=NO
**
** PARTS
**
*Part, name=Part-1
*End Part
**  
**
** ASSEMBLY
**
*Assembly, name=Assembly
**  
*Instance, name=Part-1-1, part=Part-1
*Node
      1,  0.100000001,  0.200000003,  0.100000001
      2,  0.100000001,           0.,  0.100000001
      3,  0.100000001,           0.,           0.
      4,  0.100000001,  0.200000003,           0.
      5,           0.,           0.,  0.100000001
      6,           0.,           0.,           0.
      7,           0.,  0.200000003,           0.
      8,           0.,  0.200000003,  0.100000001
      9,  0.100000001,  0.189999998,  0.100000001
     10,  0.100000001,  0.180000007,  0.100000001
     11,  0.100000001,  0.170000002,  0.100000001
     12,  0.100000001,  0.159999996,  0.100000001
     13,  0.100000001,  0.150000006,  0.100000001
     14,  0.100000001,  0.140000001,  0.100000001
     15,  0.100000001,  0.129999995,  0.100000001
     16,  0.100000001,  0.119999997,  0.100000001
     17,  0.100000001,  0.109999999,  0.100000001
     18,  0.100000001,  0.100000001,  0.100000001
     19,  0.100000001, 0.0900000036,  0.100000001
     20,  0.100000001, 0.0799999982,  0.100000001
** ... 2686 like lines cut
*Element, type=DC3D4
    1, 1003, 1004, 1005, 1006
    2, 1007, 1008, 1009, 1003
    3, 1010, 1007, 1008, 1009
    4, 1003, 1004, 1009, 1011
    5, 1003, 1004, 1011, 1005
    6, 1012, 1013, 1014, 1015
    7, 1016, 1015, 1017, 1018
    8, 1015, 1013, 1014, 1019
    9, 1015, 1012, 1020, 1021
   10, 1015, 1014, 1022, 1019
   11, 1015, 1021, 1020, 1023
   12, 1014, 1024, 1025, 1023
   13, 1023, 1026, 1027, 1024
   14, 1028, 1029, 1030, 1031
   15, 1028, 1030, 1032, 1033
   16, 1028, 1034, 1029, 1035
   17,  375, 1036,  374, 1037
   18, 1028, 1029, 1038, 1030
   19, 1039, 1028, 1038, 1030
   20, 1028, 1029, 1034, 1040
** ... 13072 like lines cut
*Nset, nset=_PickedSet2, internal, generate
    1,  2706,     1
*Elset, elset=_PickedSet2, internal, generate
     1,  13092,      1
*Nset, nset=top
   1,   4,   7,   8,  56,  57,  58,  59,  60,  61,  62,  63,  64, 111, 112, 113
 114, 115, 116, 117, 118, 119, 120, 121, 122, 123, 124, 125, 126, 127, 128, 129
 130, 131, 132, 133, 134, 135, 136, 137, 580, 581, 582, 583, 584, 585, 586, 587
 588, 589, 590, 591, 592, 593, 594, 595, 596, 597, 598, 599, 600, 601, 602, 603
 604, 605, 606, 607, 608, 609, 610, 611, 612, 613, 614, 615, 616, 617, 618, 619
 620, 621, 622, 623, 624, 625, 626, 627, 628, 629, 630, 631, 632, 633, 634, 635
 636, 637, 638, 639, 640, 641, 642, 643, 644, 645, 646, 647, 648, 649, 650, 651
 652, 653, 654, 655, 656, 657, 658, 659, 660
*Elset, elset=top
    92,   839,  1735,  1826,  2062,  2087,  2193,  2298,  2370,  2502,  2633,  3730,  4498,  4514,  4551,  4558
  4569,  4576,  4585,  4628,  4636,  4640,  4648,  4652,  4685,  4691,  4706,  4714,  4722,  4740,  4748,  4754
  4755,  4761,  4767,  4772,  4773,  4784,  4788,  4796,  4801,  4807,  4828,  4835,  4837,  4847,  4861,  4872
  4882,  4886,  4892,  4893,  4913,  4915,  4917,  4919,  4922,  4943,  4946,  4950,  4953,  4957,  4960,  4967
  4968,  4970,  4984,  4987,  5001,  5016,  5017,  5026,  5035,  5037,  5039,  5042,  5044,  5049,  5052,  5054
  5055,  5061,  5063,  5068,  5077,  5081,  5112,  5121,  5128,  5138,  5140,  5155,  5157,  5176,  5180,  5181
  5185,  5186,  5188,  5191,  5209,  5212,  5213,  5218,  5220,  5222,  5223,  5226,  5230,  5242,  5244,  5248
  5258,  5263,  5271,  5273,  5275,  5280,  5285,  5290,  5292,  5294,  5296,  5298,  5313,  5317,  5318,  5326
  5329,  5338,  5346,  5360,  5371,  5587,  5589,  5633,  5701,  5716,  5804,  5900,  5917,  5994,  5998,  6008
  6203,  6300,  6301,  6494,  6589,  6605,  6705,  6785,  6802,  6883,  6899,  6985,  7011,  7025,  7112,  7113
  7259,  7268,  7329,  7331,  7368,  7503,  7504,  7505,  7576,  7578,  7601,  7603,  7605,  7672,  7684,  7686
  7856,  7893,  8007,  8192,  8340,  8341,  8344,  8346,  8558,  9061,  9232,  9586,  9985,  9990, 10181, 10189
 10554, 10559, 10566, 10654, 10753, 11117, 11383, 13028
*Nset, nset=body, generate
    1,  2706,     1
*Elset, elset=body, generate
     1,  13092,      1
*Elset, elset=bottom
    21,    58,   421,   720,  1040,  1121,  1303,  1405,  1545,  1766,  1991,  2037,  2052,  2058,  2159,  2248
  2256,  2263,  2546,  2556,  2563,  2575,  2667,  2684,  2762,  2772,  2867,  2892,  2999,  3031,  3033,  3060
  3063,  3064,  3072,  3073,  3091,  3100,  3105,  3122,  3127,  3140,  3141,  3161,  3171,  3176,  3180,  3182
  3187,  3194,  3198,  3214,  3215,  3223,  3230,  3232,  3240,  3252,  3262,  3293,  3329,  3336,  3339,  3356
  3357,  3360,  3364,  3366,  3373,  3377,  3396,  3399,  3404,  3428,  3435,  3440,  3442,  3456,  3461,  3467
  3470,  3475,  3479,  3482,  3494,  3498,  3499,  3514,  3527,  3530,  3540,  3552,  3554,  3559,  3579,  3586
  3588,  3591,  3594,  3605,  3636,  3637,  3640,  3642,  3643,  3647,  3655,  3656,  3665,  3668,  3675,  3714
  3722,  3783,  3802,  3826,  3853,  3859,  3879,  3967,  4058,  4486,  5066,  5105,  5347,  5519,  5533,  5553
  5564,  5568,  5581,  5765,  5969,  5976,  5990,  6078,  6079,  6090,  6095,  6396,  6502,  6504,  6511,  6626
  6628,  6638,  6805,  7014,  7020,  7296,  7322,  7340,  7382,  7419,  7424,  7537,  7711,  7774,  7853,  7927
  8153,  8154,  8198,  8277,  8286,  8291,  8300,  8545,  8692,  8755,  9239,  9267,  9516,  9738,  9978, 10056
 10060, 11082, 11087, 11105, 11114, 11138, 11159, 11162, 11163, 11336,  1762,  1779,  2796,  3065,  3415,  5885
 6397, 11081,  2900,  7532, 10299, 3041, 6211, 8680

** Section: Section-1
*Solid Section, elset=_PickedSet2, material=Material-1
,
*End Instance
**  
*End Assembly
** 
** MATERIALS
** 
*Material, name=Material-1
*Conductivity
 0.001,
*Density
1.,
** ----------------------------------------------------------------
** 
** STEP: Step-1
** 
*Step, name=Step-1
*Heat Transfer, steady state, deltmx=0.1
1., 1., 1e-05, 1., 
** 
** BOUNDARY CONDITIONS
** 
** Name: top_drichlet Type: Temperature
*Boundary
Part-1-1.top, 11, 11, 100.
** 
** LOADS
**
*Dflux
Part-1-1.body, BF, 0.0 
** Name: bottom_neuman   Type: Surface heat flux
*Dsflux
Part-1-1.bottom, S, 1.
** 
** OUTPUT REQUESTS
** 
*Restart, write, frequency=0
** 
** FIELD OUTPUT: F-Output-1
** 
*Output, field, variable=PRESELECT
*Output, history, frequency=0
*End Step
