*Heading
** Job name: Job-3 Model name: Model-1
** Generated by: Abaqus/CAE 6.14-2
*Preprint, echo=NO, model=NO, history=NO, contact=NO
**
** PARTS
**
*Part, name=Part-1
*Node
      1,  -2.33249998,           2.
      2,  -2.16750002,           0.
      3,  -1.67250001,           0.
      4,  -1.45249999,           2.
      5,  0.162499994,           0.
      6,  0.162499994,           2.
      7,   -3.8375001,           2.
      8,   -3.8375001,           0.
      9,  -2.32218742,        1.875
     10,   -2.3118751,         1.75
     11,  -2.30156255,        1.625
     12,  -2.29124999,          1.5
     13,  -2.28093743,        1.375
     14,  -2.27062511,         1.25
     15,  -2.26031256,        1.125
     16,        -2.25,           1.
     17,  -2.23968744,        0.875
     18,  -2.22937489,         0.75
     19,  -2.21906257,        0.625
     20,  -2.20875001,          0.5
** ... 226 like lines cut
*Element, type=CPE3
 1,  1,  9, 38
 2, 38,  4,  1
 3,  9, 10, 37
 4, 37, 38,  9
 5, 10, 11, 36
 6, 36, 37, 10
 7, 11, 12, 35
 8, 35, 36, 11
 9, 12, 13, 34
10, 34, 35, 12
11, 13, 14, 33
12, 33, 34, 13
13, 14, 15, 32
14, 32, 33, 14
15, 15, 16, 31
16, 31, 32, 15
17, 16, 17, 30
18, 30, 31, 16
19, 17, 18, 29
20, 29, 30, 17
** ... 429 like lines cut
*Nset, nset=Set-1, generate
   1,  246,    1
*Elset, elset=Set-1, generate
   1,  449,    1
** Section: Section-1
*Solid Section, elset=Set-1, material=Material-1
,
*End Part
**  
**
** ASSEMBLY
**
*Assembly, name=Assembly
**  
*Instance, name=Part-1-1, part=Part-1
*End Instance
**  
*Nset, nset=Set-1, instance=Part-1-1
 8,
*Nset, nset=Set-2, instance=Part-1-1
  5,  6, 41, 42, 43, 44, 45, 46, 47, 48, 49, 50, 51, 52
*Elset, elset=Set-2, instance=Part-1-1
  50,  57,  88,  89,  91,  92,  93,  95,  97,  99, 101, 106, 141
*Nset, nset=left, instance=Part-1-1
  7,  8, 56, 57, 58, 59, 60, 61, 62, 63, 64, 65, 66, 67, 68, 69
*Nset, nset=right, instance=Part-1-1
  5,  6, 41, 42, 43, 44, 45, 46, 47, 48, 49, 50, 51, 52
*End Assembly
** 
** MATERIALS
** 
*Material, name=Material-1
*Elastic
1.,0.
** ----------------------------------------------------------------
** 
** STEP: Step-1
** 
*Step, name=Step-1, nlgeom=NO
*Static
1., 1., 1e-05, 1.
** 
** BOUNDARY CONDITIONS
** 
** Name: BC-1 Type: Displacement/Rotation
*Boundary
Set-1, 1, 1
Set-1, 2, 2
** Name: BC-2 Type: Displacement/Rotation
*Boundary
Set-2, 1, 1, 1.
** 
** OUTPUT REQUESTS
** 
*Restart, write, frequency=0
** 
** FIELD OUTPUT: F-Output-1
** 
*Output, field, variable=PRESELECT
** 
** HISTORY OUTPUT: H-Output-1
** 
*Output, history, variable=PRESELECT
*End Step
