*Heading
** Job name: Job-2 Model name: Model-1
** Generated by: Abaqus/CAE 6.14-2
*Preprint, echo=NO, model=NO, history=NO, contact=NO
**
** PARTS
**
*Part, name=Part-1
*Node
      1,   -3.8375001,           2.
      2,  0.162499994,           2.
      3,   -3.8375001,           0.
      4,  0.162499994,           0.
      5,  -3.17083335,           2.
      6,   -2.5041666,           2.
      7,  -1.83749998,           2.
      8,  -1.17083335,           2.
      9, -0.504166663,           2.
     10,   -3.8375001,  0.333333343
     11,   -3.8375001,  0.666666687
     12,   -3.8375001,           1.
     13,   -3.8375001,   1.33333337
     14,   -3.8375001,   1.66666663
     15, -0.408928573,           0.
     16,  -0.98035717,           0.
     17,  -1.55178571,           0.
     18,  -2.12321424,           0.
     19,  -2.69464278,           0.
     20,  -3.26607132,           0.
** ... 45 like lines cut
*Element, type=CPE3
 1, 33, 27, 26
 2, 65, 62, 63
 3,  5,  1, 14
 4, 46, 38, 37
 5, 64, 63, 47
 6, 56, 55, 52
 7, 50, 43, 45
 8, 20, 10,  3
 9, 40, 37, 11
10, 40, 11, 10
11, 38, 12, 37
12, 39, 13, 38
13, 41,  4, 32
14, 49, 44, 43
15, 55, 16, 54
16, 60, 55, 57
17, 60, 58, 18
18, 47, 40, 20
19, 35,  2,  9
20, 35, 22, 21
** ... 76 like lines cut
*Nset, nset=Set-1, generate
  1,  65,   1
*Elset, elset=Set-1, generate
  1,  96,   1
** Section: Section-1
*Solid Section, elset=Set-1, material=Material-1
,
*End Part
**  
**
** ASSEMBLY
**
*Assembly, name=Assembly
**  
*Instance, name=Part-1-1, part=Part-1
*End Instance
**  
*Nset, nset=Set-1, instance=Part-1-1
 3,
*Nset, nset=Set-2, instance=Part-1-1
  2,  4, 21, 22, 23, 24, 25, 26, 27, 28, 29, 30, 31, 32
*Elset, elset=Set-2, instance=Part-1-1
  1, 13, 20, 22, 23, 25, 26, 27, 28, 29, 35, 37, 48
*Nset, nset=left, instance=Part-1-1
  1,  3, 10, 11, 12, 13, 14
*Nset, nset=right, instance=Part-1-1
  2,  4, 21, 22, 23, 24, 25, 26, 27, 28, 29, 30, 31, 32
*End Assembly
** 
** MATERIALS
** 
*Material, name=Material-1
*Elastic
1.,0.
** ----------------------------------------------------------------
** 
** STEP: Step-1
** 
*Step, name=Step-1, nlgeom=NO
*Static
1., 1., 1e-05, 1.
** 
** BOUNDARY CONDITIONS
** 
** Name: BC-1 Type: Displacement/Rotation
*Boundary
Set-1, 1, 1
Set-1, 2, 2
** Name: BC-2 Type: Displacement/Rotation
*Boundary
Set-2, 1, 1, 1.
** 
** OUTPUT REQUESTS
** 
*Restart, write, frequency=0
** 
** FIELD OUTPUT: F-Output-1
** 
*Output, field, variable=PRESELECT
** 
** HISTORY OUTPUT: H-Output-1
** 
*Output, history, variable=PRESELECT
*End Step
