*Heading
** Job name: Job-4 Model name: Model-1
** Generated by: Abaqus/CAE 6.14-2
*Preprint, echo=NO, model=NO, history=NO, contact=NO
**
** PARTS
**
*Part, name=Part-1
*Node
      1, -0.912759542,           2.
      2,  -2.16750002,           0.
      3,  0.162499994,           0.
      4,  0.162499994,           2.
      5,  -2.33249998,           2.
      6,   -3.8375001,           2.
      7,   -3.8375001,           0.
      8,  -1.01732123,   1.83333337
      9,  -1.12188292,   1.66666663
     10,   -1.2264446,          1.5
     11,  -1.33100641,   1.33333337
     12,  -1.43556809,   1.16666663
     13,  -1.54012978,           1.
     14,  -1.64469147,  0.833333313
     15,  -1.74925315,  0.666666687
     16,  -1.85381484,          0.5
     17,  -1.95837665,  0.333333343
     18,  -2.06293821,  0.166666672
     19,  -1.58500004,           0.
     20,  -1.00250006,           0.
** ... 249 like lines cut
*Element, type=CPE3
  1,  79,  29,  78
  2, 105, 103,  94
  3,  18,  19,  80
  4,  81,  80,  19
  5,  80,  16,  17
  6,  85,  83,  13
  7,  88,  15,  81
  8,  88,  14,  15
  9, 124, 117, 122
 10, 101,  98,  86
 11, 101,  83,  96
 12,  86,  11,  12
 13, 121, 111, 118
 14,  76,   3,  22
 15, 125, 120,  20
 16, 100,  19,  20
 17,  77,   4,  34
 18,  77,  70,  32
 19,  77,  32,  33
 20,  71,  31,  70
** ... 473 like lines cut
*Nset, nset=Set-1, generate
   1,  269,    1
*Elset, elset=Set-1, generate
   1,  493,    1
** Section: Section-1
*Solid Section, elset=Set-1, material=Material-1
,
*End Part
**  
**
** ASSEMBLY
**
*Assembly, name=Assembly
**  
*Instance, name=Part-1-1, part=Part-1
*End Instance
**  
*Nset, nset=Set-1, instance=Part-1-1
 7,
*Nset, nset=Set-2, instance=Part-1-1
  3,  4, 22, 23, 24, 25, 26, 27, 28, 29, 30, 31, 32, 33
*Elset, elset=Set-2, instance=Part-1-1
 14, 19, 22, 23, 27, 28, 31, 33, 34, 37, 39, 41, 44
*Nset, nset=left, instance=Part-1-1
  6,  7, 54, 55, 56, 57, 58, 59, 60, 61, 62, 63, 64, 65, 66, 67
*Nset, nset=right, instance=Part-1-1
  3,  4, 22, 23, 24, 25, 26, 27, 28, 29, 30, 31, 32, 33
*End Assembly
** 
** MATERIALS
** 
*Material, name=Material-1
*Elastic
1.,0.
** ----------------------------------------------------------------
** 
** STEP: Step-1
** 
*Step, name=Step-1, nlgeom=NO
*Static
1., 1., 1e-05, 1.
** 
** BOUNDARY CONDITIONS
** 
** Name: BC-1 Type: Displacement/Rotation
*Boundary
Set-1, 1, 1
Set-1, 2, 2
** Name: BC-2 Type: Displacement/Rotation
*Boundary
Set-2, 1, 1, 1.
** 
** OUTPUT REQUESTS
** 
*Restart, write, frequency=0
** 
** FIELD OUTPUT: F-Output-1
** 
*Output, field, variable=PRESELECT
** 
** HISTORY OUTPUT: H-Output-1
** 
*Output, history, variable=PRESELECT
*End Step
