*Heading
** Job name: Job-1 Model name: Model-1
** Generated by: Abaqus/CAE 6.14-2
*Preprint, echo=NO, model=NO, history=NO, contact=NO
**
** PARTS
**
*Part, name=Part-1
*Node
      1,   -3.8375001,           2.
      2,  0.162499994,           2.
      3,   -3.8375001,           0.
      4,  0.162499994,           0.
      5,   -3.5041666,           2.
      6,  -3.17083335,           2.
      7,   -2.8375001,           2.
      8,   -2.5041666,           2.
      9,  -2.17083335,           2.
     10,  -1.83749998,           2.
     11,  -1.50416672,           2.
     12,  -1.17083335,           2.
     13, -0.837499976,           2.
     14, -0.504166663,           2.
     15, -0.170833334,           2.
     16,   -3.8375001,          0.5
     17,   -3.8375001,           1.
     18,   -3.8375001,          1.5
     19, -0.248792037,           0.
     20,  -0.62725538,           0.
** ... 97 like lines cut
*Element, type=CPE4R
 1,  54,  91,  15,  14
 2,  40,  62,  61,  39
 3,   1,  18, 105,   5
 4,  77,  92,  58,  59
 5,  39,  28,  27,  40
 6,  50,  46,  67,  70
 7,   7,  50,  51,   8
 8,   9,  47,  48,  10
 9,  44,  66,  65,  43
10,  11,  49,  52,  12
11,  12,  52,  53,  13
12,  13,  53,  54,  14
13,   3,  35,  37,  16
14,  76,  92,  99, 106
15,  18,  17,  90, 105
16,  56,  20,  19, 104
17,  20,  56,  55,  21
18,  22,  45,  44,  23
19,  23,  44,  43,  24
20,  24,  43,  42,  25
** ... 78 like lines cut
*Nset, nset=Set-1, generate
   1,  117,    1
*Elset, elset=Set-1, generate
  1,  98,   1
** Section: Section-1
*Solid Section, elset=Set-1, material=Material-1
,
*End Part
**  
**
** ASSEMBLY
**
*Assembly, name=Assembly
**  
*Instance, name=Part-1-1, part=Part-1
*End Instance
**  
*Nset, nset=Set-1, instance=Part-1-1
 3,
*Nset, nset=Set-2, instance=Part-1-1
  2,  4, 36
*Elset, elset=Set-2, instance=Part-1-1
 29, 48
*Nset, nset=bottom, instance=Part-1-1
  3,  4, 19, 20, 21, 22, 23, 24, 25, 26, 27, 28, 29, 30, 31, 32
 33, 34, 35
*Nset, nset=left, instance=Part-1-1
  1,  3, 16, 17, 18
*Nset, nset=right, instance=Part-1-1
  2,  4, 36
*Nset, nset=top, instance=Part-1-1
  1,  2,  5,  6,  7,  8,  9, 10, 11, 12, 13, 14, 15
*End Assembly
** 
** MATERIALS
** 
*Material, name=Material-1
*Elastic
1.,0.
** ----------------------------------------------------------------
** 
** STEP: Step-1
** 
*Step, name=Step-1, nlgeom=NO
*Static
1., 1., 1e-05, 1.
** 
** BOUNDARY CONDITIONS
** 
** Name: BC-1 Type: Displacement/Rotation
*Boundary
Set-1, 1, 1
Set-1, 2, 2
** Name: BC-2 Type: Displacement/Rotation
*Boundary
Set-2, 1, 1, 1.
** 
** OUTPUT REQUESTS
** 
*Restart, write, frequency=0
** 
** FIELD OUTPUT: F-Output-1
** 
*Output, field, variable=PRESELECT
** 
** HISTORY OUTPUT: H-Output-1
** 
*Output, history, variable=PRESELECT
*End Step
