*Heading
** Job name: Tet_Heat2 Model name: Model-1
** Generated by: Abaqus/CAE 6.14-2
*Preprint, echo=NO, model=NO, history=NO, contact=NO
**
** PARTS
**
*Part, name=Part-1
*Node
      1,           0.,           0.,  0.100000001
      2,           0.,  0.200000003,  0.100000001
      3,           0.,  0.200000003,           0.
      4,           0.,           0.,           0.
      5,  0.100000001,  0.200000003,  0.100000001
      6,  0.100000001,  0.200000003,           0.
      7,  0.100000001,           0.,           0.
      8,  0.100000001,           0.,  0.100000001
      9,           0., 0.00999999978,  0.100000001
     10,           0., 0.0199999996,  0.100000001
     11,           0., 0.0299999993,  0.100000001
     12,           0., 0.0399999991,  0.100000001
     13,           0., 0.0500000007,  0.100000001
     14,           0., 0.0599999987,  0.100000001
     15,           0., 0.0700000003,  0.100000001
     16,           0., 0.0799999982,  0.100000001
     17,           0., 0.0900000036,  0.100000001
     18,           0.,  0.100000001,  0.100000001
     19,           0.,  0.109999999,  0.100000001
     20,           0.,  0.119999997,  0.100000001
** ... 2660 like lines cut
*Element, type=DC3D4
    1, 1003, 1004, 1005, 1006
    2, 1007, 1004, 1008, 1006
    3, 1004, 1008, 1006, 1003
    4, 1003, 1009, 1010, 1011
    5, 1003, 1012, 1010, 1009
    6, 1013, 1014, 1015, 1016
    7, 1017,  626, 1018, 1019
    8, 1020, 1008, 1009, 1003
    9, 1021, 1022, 1023, 1024
   10, 1021, 1025, 1026, 1027
   11, 1021, 1024, 1026, 1025
   12, 1028, 1029, 1030, 1031
   13, 1031, 1010, 1032, 1033
   14, 1034, 1035, 1036, 1037
   15, 1038, 1029, 1030, 1028
   16, 1010, 1032, 1039, 1040
   17, 1010, 1041, 1042, 1039
   18, 1043, 1044, 1045, 1046
   19, 1043, 1046, 1045, 1040
   20, 1043, 1046, 1047, 1048
** ... 12898 like lines cut
*End Part
**  
**
** ASSEMBLY
**
*Assembly, name=Assembly
**  
*Instance, name=Part-1-1, part=Part-1
*End Instance
**  
*Nset, nset=Bottom
   1,   4,   7,   8,  56,  57,  58,  59,  60,  61,  62,  63,  64, 111, 112, 113
 114, 115, 116, 117, 118, 119, 120, 121, 122, 123, 124, 125, 126, 127, 128, 129
 130, 131, 132, 133, 134, 135, 136, 137, 580, 581, 582, 583, 584, 585, 586, 587
 588, 589, 590, 591, 592, 593, 594, 595, 596, 597, 598, 599, 600, 601, 602, 603
 604, 605, 606, 607, 608, 609, 610, 611, 612, 613, 614, 615, 616, 617, 618, 619
 620, 621, 622, 623, 624, 625, 626, 627, 628, 629, 630, 631, 632, 633, 634, 635
 636, 637, 638, 639, 640, 641, 642, 643, 644, 645, 646, 647, 648, 649, 650, 651
 652, 653, 654, 655, 656, 657, 658, 659, 660
*Elset, elset=Bottom
   329,  1151,  1695,  1727,  1803,  1831,  1886,  2104,  2178,  2373,  2887,  3984,  4175,  4459,  4462,  4547
  4572,  4596,  4642,  4710,  4711,  4722,  4746,  4747,  4748,  4751,  4753,  4754,  4758,  4763,  4769,  4784
  4788,  4790,  4797,  4800,  4809,  4810,  4813,  4818,  4823,  4831,  4842,  4845,  4847,  4849,  4851,  4854
  4855,  4862,  4872,  4875,  4879,  4881,  4887,  4892,  4893,  4907,  4913,  4916,  4922,  4923,  4924,  4939
  4941,  4956,  4960,  4975,  4977,  4981,  4984,  4993,  4999,  5002,  5017,  5020,  5022,  5025,  5027,  5029
  5037,  5040,  5042,  5043,  5046,  5054,  5056,  5061,  5064,  5073,  5098,  5101,  5111,  5113,  5117,  5120
  5128,  5131,  5155,  5160,  5167,  5172,  5173,  5180,  5184,  5212,  5213,  5225,  5234,  5238,  5241,  5245
  5246,  5252,  5262,  5264,  5265,  5267,  5269,  5275,  5280,  5281,  5284,  5288,  5292,  5297,  5315,  5320
  5362,  5397,  5584,  5705,  5788,  5795,  5797,  5799,  5805,  5846,  5900,  5908,  5990,  5993,  5998,  6283
  6491,  6590,  6599,  6686,  6687,  6792,  6802,  6803,  6807,  6894,  6993,  7004,  7096,  7100,  7366,  7367
  7369,  7370,  7387,  7428,  7431,  7558,  7560,  8150,  8161,  8205,  8222,  8288,  8593,  8594,  8692,  8885
  9082,  9112,  9322,  9543,  9641,  9943,  9945, 10019, 10020, 10117, 10118, 10447, 10450, 10510, 10513, 10565
 10572, 10573, 10766, 10989, 11018, 11301, 12524, 12525
*Nset, nset=Top
   2,   3,   5,   6,  28,  29,  30,  31,  32,  33,  34,  35,  36,  65,  66,  67
  68,  69,  70,  71,  72,  73,  74,  75,  76,  77,  78,  79,  80,  81,  82,  83
  84,  85,  86,  87,  88,  89,  90,  91, 328, 329, 330, 331, 332, 333, 334, 335
 336, 337, 338, 339, 340, 341, 342, 343, 344, 345, 346, 347, 348, 349, 350, 351
 352, 353, 354, 355, 356, 357, 358, 359, 360, 361, 362, 363, 364, 365, 366, 367
 368, 369, 370, 371, 372, 373, 374, 375, 376, 377, 378, 379, 380, 381, 382, 383
 384, 385, 386, 387, 388, 389, 390, 391, 392, 393, 394, 395, 396, 397, 398, 399
 400, 401, 402, 403, 404, 405, 406, 407, 408
*Elset, elset=Top
   222,   977,  1011,  1160,  1295,  1642,  1750,  1763,  1765,  1947,  1994,  1996,  1998,  2002,  2013,  2046
  2050,  2052,  2120,  2145,  2247,  2268,  2345,  2361,  2462,  2467,  2469,  2543,  2561,  2562,  2667,  2676
  2698,  2755,  2765,  2773,  3004,  3059,  3069,  3096,  3097,  3103,  3113,  3122,  3129,  3131,  3137,  3144
  3149,  3154,  3159,  3162,  3183,  3204,  3217,  3219,  3224,  3239,  3242,  3263,  3266,  3269,  3278,  3280
  3303,  3338,  3339,  3342,  3349,  3350,  3351,  3356,  3357,  3371,  3380,  3394,  3403,  3406,  3410,  3418
  3421,  3422,  3429,  3434,  3439,  3441,  3447,  3462,  3471,  3472,  3476,  3477,  3479,  3488,  3489,  3490
  3497,  3525,  3528,  3535,  3538,  3541,  3546,  3549,  3572,  3583,  3588,  3590,  3598,  3615,  3620,  3625
  3629,  3632,  3635,  3637,  3645,  3646,  3651,  3652,  3656,  3664,  3665,  3667,  3680,  3681,  3686,  3712
  3724,  3752,  3786,  3798,  3815,  3829,  3850,  3860,  3861,  3876,  3914,  3948,  4129,  4137,  4990,  5005
  5014,  5082,  5088,  5140,  5183,  5371,  5385,  5459,  5487,  5506,  5535,  5540,  5554,  5569,  5664,  5676
  5743,  5752,  5763,  5764,  5872,  5879,  5956,  5964,  5971,  6048,  6064,  6068,  6169,  6397,  6408,  6605
  6615,  7254,  7279,  7379,  7444,  7448,  7538,  7539,  7610,  7611,  7784,  8107,  8552,  9018,  9170,  9224
  9419,  9965, 10418, 10625, 10682, 10851, 10880, 11110
*End Assembly
** 
** MATERIALS
** 
*Material, name=Material-1
*Conductivity
 0.001,
*Density
1.,
** ----------------------------------------------------------------
** 
** STEP: Step-1
** 
*Step, name=Step-1, nlgeom=NO
*Heat Transfer, end=PERIOD, deltmx=1.
1., 1., 1e-05, 1., 
** 
** BOUNDARY CONDITIONS
** 
** Name: BC-1 Type: Temperature
*Boundary
Part1-1.Top, 11, 11, 100.
** Name: BC-2 Type: Temperature
*Boundary
Part1-1.Bottom, 11, 11
** 
** OUTPUT REQUESTS
** 
*Restart, write, frequency=0
** 
** FIELD OUTPUT: F-Output-1
** 
*Output, field, variable=PRESELECT
*Output, history, frequency=0
*End Step
